// Generated for: spectre
// Generated on: Nov 30 16:14:42 2012
// Design library name: lab9
// Design cell name: testbench_1_5
// Design view name: schematic
simulator lang=spectre
global 0
